#======================================================================

# CRYSTAL DATA

#----------------------------------------------------------------------

data_VESTA_phase_1


_chemical_name_common                  ''
_cell_length_a                         5.00000
_cell_length_b                         5.00000
_cell_length_c                         5.00000
_cell_angle_alpha                      90
_cell_angle_beta                       90
_cell_angle_gamma                      90
_space_group_name_H-M_alt              'P 1'
_space_group_IT_number                 1

loop_
_space_group_symop_operation_xyz
   'x, y, z'

loop_
   _atom_site_label
   _atom_site_occupancy
   _atom_site_fract_x
   _atom_site_fract_y
   _atom_site_fract_z
   _atom_site_adp_type
   _atom_site_B_iso_or_equiv
   _atom_site_type_symbol
   0          1.0     0.002847      0.004847      0.997885     Biso  1.000000 O
   1          1.0     0.913820      0.911820      0.085448     Biso  1.000000 O
   2          1.0     0.830487      0.828487      0.168781     Biso  1.000000 O
   3          1.0     0.747153      0.745153      0.252115     Biso  1.000000 O
   4          1.0     0.663820      0.661820      0.335448     Biso  1.000000 O
   5          1.0     0.580487      0.578487      0.418781     Biso  1.000000 O
   6          1.0     0.421513      0.581219      0.580487     Biso  1.000000 O
   7          1.0     0.338180      0.664552      0.663820     Biso  1.000000 O
   8          1.0     0.254847      0.747885      0.747153     Biso  1.000000 O
   9          1.0     0.171513      0.831219      0.830487     Biso  1.000000 O
   10         1.0     0.088180      0.914552      0.913820     Biso  1.000000 O
   11         1.0     0.581219      0.419513      0.578487     Biso  1.000000 O
   12         1.0     0.664552      0.336180      0.661820     Biso  1.000000 O
   13         1.0     0.747885      0.252847      0.745153     Biso  1.000000 O
   14         1.0     0.831219      0.169513      0.828487     Biso  1.000000 O
   15         1.0     0.914552      0.086180      0.911820     Biso  1.000000 O
   16         1.0     0.086180      0.088180      0.085448     Biso  1.000000 O
   17         1.0     0.088180      0.085448      0.086180     Biso  1.000000 O
   18         1.0     0.085448      0.086180      0.088180     Biso  1.000000 O
   19         1.0     0.169513      0.171513      0.168781     Biso  1.000000 O
   20         1.0     0.171513      0.168781      0.169513     Biso  1.000000 O
   21         1.0     0.168781      0.169513      0.171513     Biso  1.000000 O
   22         1.0     0.252847      0.254847      0.252115     Biso  1.000000 O
   23         1.0     0.254847      0.252115      0.252847     Biso  1.000000 O
   24         1.0     0.252115      0.252847      0.254847     Biso  1.000000 O
   25         1.0     0.336180      0.338180      0.335448     Biso  1.000000 O
   26         1.0     0.338180      0.335448      0.336180     Biso  1.000000 O
   27         1.0     0.335448      0.336180      0.338180     Biso  1.000000 O
   28         1.0     0.419513      0.421513      0.418781     Biso  1.000000 O
   29         1.0     0.421513      0.418781      0.419513     Biso  1.000000 O
   30         1.0     0.418781      0.419513      0.421513     Biso  1.000000 O
   31         1.0     0.502847      0.504847      0.502115     Biso  1.000000 O
   32         1.0     0.504847      0.502115      0.502847     Biso  1.000000 O
   33         1.0     0.502115      0.502847      0.504847     Biso  1.000000 O
