_cell_length_a                  5.0
_cell_length_b                  5.0
_cell_length_c                  5.0
_cell_angle_alpha               90.0
_cell_angle_beta                90.0
_cell_angle_gamma               90.0
_symmetry_space_group_name_H-M 'P 1'
_symmetry_Int_Tables_number    '1'

loop_
_atom_site_label
_atom_site_type_symbol
_atom_site_fract_x
_atom_site_fract_y
_atom_site_fract_z
0 O1 0.0028465573142999467 0.0048465573142999485 0.997885493493269
1 O2 0.913820109352367 0.9118201093523671 0.08544783984006432
2 O3 0.8304867760190336 0.8284867760190338 0.16878117317339747
3 O4 0.7471534426857003 0.7451534426857004 0.25211450650673095
4 O5 0.6638201093523668 0.6618201093523671 0.3354478398400641
5 O6 0.5804867760190334 0.5784867760190338 0.4187811731733977
6 O7 0.42151322398096625 0.5812188268266023 0.5804867760190332
7 O8 0.3381798906476329 0.6645521601599358 0.6638201093523666
8 O9 0.2548465573142996 0.747885493493269 0.7471534426857
9 O10 0.17151322398096636 0.8312188268266024 0.8304867760190334
10 O11 0.08817989064763306 0.9145521601599358 0.9138201093523668
11 O12 0.5812188268266023 0.41951322398096663 0.5784867760190335
12 O13 0.6645521601599358 0.3361798906476332 0.6618201093523669
13 O14 0.747885493493269 0.25284655731429984 0.7451534426857003
14 O15 0.8312188268266024 0.16951322398096652 0.8284867760190335
15 O16 0.9145521601599358 0.08617989064763312 0.9118201093523669
16 O17 0.08617989064763311 0.08817989064763311 0.08544783984006422
17 O18 0.08817989064763336 0.08544783984006449 0.08617989064763336
18 O19 0.08544783984006518 0.08617989064763405 0.08817989064763405
19 O20 0.16951322398096647 0.17151322398096647 0.16878117317339758
20 O21 0.1715132239809667 0.16878117317339783 0.1695132239809667
21 O22 0.16878117317339852 0.1695132239809674 0.1715132239809674
22 O23 0.2528465573142998 0.2548465573142998 0.2521145065067309
23 O24 0.25484655731430006 0.2521145065067312 0.25284655731430006
24 O25 0.25211450650673184 0.2528465573143007 0.2548465573143007
25 O26 0.3361798906476331 0.3381798906476331 0.3354478398400642
26 O27 0.3381798906476334 0.3354478398400645 0.3361798906476334
27 O28 0.3354478398400652 0.33617989064763404 0.33817989064763404
28 O29 0.41951322398096647 0.42151322398096647 0.4187811731733976
29 O30 0.42151322398096674 0.41878117317339786 0.41951322398096674
30 O31 0.4187811731733986 0.4195132239809674 0.4215132239809674
31 O32 0.5028465573142998 0.5048465573142998 0.502114506506731
32 O33 0.5048465573143001 0.5021145065067312 0.5028465573143001
33 O34 0.5021145065067318 0.5028465573143007 0.5048465573143007
